/*--------------------------------*- C++ -*----------------------------------*\
  =========                 |
  \\      /  F ield         | OpenFOAM: The Open Source CFD Toolbox
   \\    /   O peration     | Website:  https://openfoam.org
    \\  /    A nd           | Version:  8
     \\/     M anipulation  |
\*---------------------------------------------------------------------------*/
FoamFile
{
    version     2.0;
    format      ascii;
    class       dictionary;
    location    "system";
    object      fvSolution;
}
// * * * * * * * * * * * * * * * * * * * * * * * * * * * * * * * * * * * * * //

solvers
{
    "pcorr.*"
    {
        solver           GAMG;
        tolerance        0.02;
        relTol           0;
        smoother         GaussSeidel;
    }

    p
    {
        $pcorr;
        tolerance        1e-6;
        relTol           0.01;
    }

    pFinal
    {
        $p;
        tolerance        1e-6;
        relTol           0;
    }

    "(U|k|omega|)"
    {
        solver          smoothSolver;
        smoother        symGaussSeidel;
        tolerance       1e-05;
        relTol          0.1;
    }
    
    "(U|k|omega)Final"
    {
        $U;
        relTol          0;
    }
}

PIMPLE
{
    correctPhi          yes;    // Usually need it when fluid field is updated, e.g., induced by dynamic mesh.
    nOuterCorrectors    2;
    nCorrectors         1;
    nNonOrthogonalCorrectors 1;
    momentumPredictor   yes;
}

relaxationFactors
{
    fields
    {
        p               0.5;
    }
    
    equations
    {
        "(U|k|omega)"   0.7;
        "(U|k|omega)Final" 1.0;
    }
}


// ************************************************************************* //
